/*--------------------------------*- C++ -*----------------------------------*\
  =========                 |
  \\      /  F ield         | OpenFOAM: The Open Source CFD Toolbox
   \\    /   O peration     | Website:  https://openfoam.org
    \\  /    A nd           | Version:  7
     \\/     M anipulation  |
\*---------------------------------------------------------------------------*/
FoamFile
{
    version     2.0;
    format      ascii;
    class       volScalarField;
    location    "0.000";
    object      Sw_s;
}
// * * * * * * * * * * * * * * * * * * * * * * * * * * * * * * * * * * * * * //

/*
    See Table 4.1 from Rosenzweig thesis (2011)
    For Caesarea sand without added xantan, van Genuchten parameters are:
        thera_r = 0.012  -> Sw_r = 0.0312
        theta_s = 0.385  -> Sw_s = 1.0
        n = 7.26
        alpha = 0.0279 1/cm
*/

dimensions      [0 0 0 0 0 0 0];

internalField   uniform 1.0; 

boundaryField
{
    top
    {
        type            zeroGradient;
    }
    left
    {
        type            empty;
    }
    right
    {
        type            empty;
    }
    front
    {
        type            empty;
    }
    back
    {
        type            empty;
    }
    bottom
    {
        type            zeroGradient;
    }
}


// ************************************************************************* //
