/*--------------------------------*- C++ -*----------------------------------*\
  =========                 |
  \\      /  F ield         | OpenFOAM: The Open Source CFD Toolbox
   \\    /   O peration     | Website:  https://openfoam.org
    \\  /    A nd           | Version:  7
     \\/     M anipulation  |
\*---------------------------------------------------------------------------*/
FoamFile
{
    version     2.0;
    format      ascii;
    class       dictionary;
    location    "constant";
    object      transportProperties;
}
// * * * * * * * * * * * * * * * * * * * * * * * * * * * * * * * * * * * * * //
// [kg m s K mol * *]

fd       fd       [0 0  0 0 0 0 0]     0.80;     // Decay into EPS or XI
kEPS     kEPS     [0 0  0 0 0 0 0]     0.18;     // Formation of EPS
gamma_N  gamma_N  [0 0  0 0 0 0 0]     0.124;    // N/Biomass

// Hydrolisis of particulates
khyd_labil    khyd_labil    [0 0 -1 0 0 0 0]     1.968E-7;
khyd_recal    khyd_recal    [0 0 -1 0 0 0 0]     1.968E-8;

// Inhibitors and switches
K_I         K_I         [1 -3 0 0 0 0 0]     0.6E-3;   //
K_minN      K_minN      [1 -3 0 0 0 0 0]     0; // 0.1E-3;   //

// Minimum active biomass that is still viable 
X_min       X_min       [1 -3 0 0 0 0 0]     0; 

// ************************************************************************* //
