/*--------------------------------*- C++ -*----------------------------------*\
  =========                 |
  \\      /  F ield         | OpenFOAM: The Open Source CFD Toolbox
   \\    /   O peration     | Website:  https://openfoam.org
    \\  /    A nd           | Version:  7
     \\/     M anipulation  |
\*---------------------------------------------------------------------------*/
FoamFile
{
    version         2;
    format          ascii;
    class           dictionary;
    location        "constant";
    object          transportProperties;
}

rho             rho [ 1 -3 0 0 0 0 0 ] 1000;

rho_X           rho_X [ 1 -3 0 0 0 0 0 ] 10;

g               g [ 0 1 -2 0 0 0 0 ] 9.81;

mu              mu [ 1 -1 -1 0 0 0 0 ] 0.0008891;

mDif            2e-09;

mDifAir         2.06e-05;

LongDisp        0;

TransDisp       0;

molDiff         molDiff [ 0 2 -1 0 0 0 0 ] ( 2e-09 0 0 0 2e-09 0 0 0 2e-09 );

molDiff_air     molDiff_air [ 0 2 -1 0 0 0 0 ] ( 2.06e-05 0 0 0 2.06e-05 0 0 0 2.06e-05 );

DispTensor      DispTensor [ 0 1 0 0 0 0 0 ] ( 0 0 0 0 0 0 0 0 0 );

diffusiveGrowth diffusiveGrowth [ 0 2 -1 0 0 0 0 ] 1e-11;

Hacc            Hacc [ 0 0 0 0 0 0 0 ] 0.032;

O2_saturation   O2_saturation [ 1 -3 0 0 0 0 0 ] 0.009;

oxygen_mass_transfer oxygen_mass_transfer [ 0 0 -1 0 0 0 0 ] 5.787e-05;


// ************************************************************************* //
