/*--------------------------------*- C++ -*----------------------------------*\
  =========                 |
  \\      /  F ield         | OpenFOAM: The Open Source CFD Toolbox
   \\    /   O peration     | Website:  https://openfoam.org
    \\  /    A nd           | Version:  7
     \\/     M anipulation  |
\*---------------------------------------------------------------------------*/
FoamFile
{
    version         2;
    format          ascii;
    class           dictionary;
    location        "system";
    object          fvSolution;
}

solvers
{
    h
    {
        solver          PCG;
        preconditioner  FDIC;
        tolerance       1e-14;
        relTol          0;
    }
    "(DOC|O2|XI|EPS|tracer)"
    {
        solver          PBiCGStab;
        preconditioner  DILU;
        tolerance       1e-09;
        relTol          0;
    }
    "(XAR)"
    {
        solver          PBiCGStab;
        preconditioner  DIC;
        tolerance       1e-09;
        relTol          0;
    }
    O2gas
    {
        solver          PBiCGStab;
        preconditioner  DIC;
        tolerance       1e-09;
        relTol          0;
    }
}

SIMPLE
{
    nNonOrthogonalCorrectors 0;
}

timeStepping
{
    convergeThreshold 0.05;
    maxItersToConverge 30;
    UpDeltaT_nIters 3;
    UpDeltaT_Factor 1.1;
    maxDeltaT       10;
    DownDeltaT_Factor 0.5;
    minDeltaT       1e-06;
    hguess_coeff    0.55;
}


// ************************************************************************* //
