/*--------------------------------*- C++ -*----------------------------------*\
  =========                 |
  \\      /  F ield         | OpenFOAM: The Open Source CFD Toolbox
   \\    /   O peration     | Website:  https://openfoam.org
    \\  /    A nd           | Version:  7
     \\/     M anipulation  |
\*---------------------------------------------------------------------------*/
FoamFile
{
    version     2.0;
    format      ascii;
    class       dictionary;
    location    "constant";
    object      kineticsDenitrifiers;
}
// * * * * * * * * * * * * * * * * * * * * * * * * * * * * * * * * * * * * * //
// [kg m s K mol * *]

// Biochemical parameters
//// Aerobic respirators
yield    yield    [0 0  0 0 0 0 0]     0.49;     //
qhat     qhat     [0 0 -1 0 0 0 0]     8.102E-5; //
bdie     bdie     [0 0 -1 0 0 0 0]     3.472E-6; //
Kdonor   Kdonor   [1 -3 0 0 0 0 0]     0.010;    //
Kaccep   Kaccep   [1 -3 0 0 0 0 0]     0.0005;   //

// ************************************************************************* //
